data/public_benchmarks/arpae_go/extracted/Challenge_1_Original_Dataset_2_Scenarios/Original_Dataset_Real-Time_Edition_2/Network_03R-020/scenario_12/case.raw
0,   100.00, 33, 0, 1, 60.00     / PSS(R)E-33.7    FRI, AUG 24 2018  11:30
 GO Competition Network Model 03
 2015 S             REAL_TIME SEQUENCE RUN AT 2015/07/22 11.
     1,'A1          ', 115.0000,1,   1,   1,   1,1.00442,  -9.9953,1.05000,0.95000,1.10000,0.90000
     2,'A2          ', 115.0000,1,   1,   1,   1,1.01198, -11.5552,1.05000,0.95000,1.10000,0.90000
     3,'A3          ',  35.0000,1,   1,   1,   1,0.99962, -10.5888,1.05000,0.95000,1.10000,0.90000
     4,'A4          ', 115.0000,1,   1,   1,   1,1.01398,  -9.0354,1.05000,0.95000,1.10000,0.90000
     5,'A5          ',  13.0000,1,   1,   1,   1,1.01161, -12.0058,1.05000,0.95000,1.10000,0.90000
     6,'A6          ',  14.0000,2,   1,   1,   1,1.00020,  -9.1204,1.05000,0.95000,1.10000,0.90000
     7,'A7          ', 115.0000,1,   1,   1,   1,1.00204, -10.3579,1.05000,0.95000,1.10000,0.90000
     8,'A8          ',  13.0000,1,   1,   1,   1,1.01232, -11.4980,1.05000,0.95000,1.10000,0.90000
     9,'A9          ',  35.0000,1,   1,   1,   1,1.00094, -10.4427,1.05000,0.95000,1.10000,0.90000
    10,'A10         ', 115.0000,1,   1,   1,   1,1.01099, -11.9570,1.05000,0.95000,1.10000,0.90000
    11,'A11         ', 115.0000,1,   1,   1,   1,1.00866, -12.4704,1.05000,0.95000,1.10000,0.90000
    12,'A12         ',  35.0000,1,   1,   1,   1,1.00709,  -9.6846,1.05000,0.95000,1.10000,0.90000
    13,'A13         ',  13.0000,1,   1,   1,   1,1.01687, -11.1767,1.05000,0.95000,1.10000,0.90000
    15,'A15         ',  35.0000,1,   1,   1,   1,1.00860, -10.6544,1.05000,0.95000,1.10000,0.90000
    16,'A16         ', 115.0000,1,   1,   1,   1,1.01660,  -8.8979,1.05000,0.95000,1.10000,0.90000
    17,'A17         ', 115.0000,1,   1,   1,   1,1.01670,  -8.9861,1.05000,0.95000,1.10000,0.90000
    18,'A18         ', 230.0000,1,   1,   1,   1,1.01006,  -7.7109,1.05000,0.95000,1.10000,0.90000
    19,'A19         ', 230.0000,1,   1,   1,   1,1.01016,  -7.6617,1.05000,0.95000,1.10000,0.90000
    20,'A20         ',  13.0000,1,   1,   1,   1,1.01399,  -9.0959,1.05000,0.95000,1.10000,0.90000
    21,'A21         ', 115.0000,1,   1,   1,   1,1.00430, -14.7186,1.05000,0.95000,1.10000,0.90000
    22,'A22         ', 115.0000,1,   1,   1,   1,1.00204,  -9.4798,1.05000,0.95000,1.10000,0.90000
    23,'A23         ', 115.0000,2,   1,   1,   1,1.01000,  -5.2507,1.05000,0.95000,1.10000,0.90000
    24,'A24         ', 115.0000,1,   1,   1,   1,0.99227, -11.1339,1.05000,0.95000,1.10000,0.90000
    25,'A25         ',  14.0000,2,   1,   1,   1,1.00020,  -9.1204,1.05000,0.95000,1.10000,0.90000
    27,'A27         ', 115.0000,1,   1,   1,   1,1.01078, -11.9441,1.05000,0.95000,1.10000,0.90000
    28,'A28         ',  35.0000,1,   1,   1,   1,0.99814, -11.1463,1.05000,0.95000,1.10000,0.90000
    30,'A30         ', 115.0000,1,   1,   1,   1,0.99566, -10.9478,1.05000,0.95000,1.10000,0.90000
    31,'A31         ', 230.0000,2,   1,   1,   1,1.00990,  -7.7098,1.05000,0.95000,1.10000,0.90000
    32,'A32         ', 115.0000,1,   1,   1,   1,1.01149, -11.6888,1.05000,0.95000,1.10000,0.90000
    33,'A33         ', 230.0000,2,   1,   1,   1,1.00907,  -7.9618,1.05000,0.95000,1.10000,0.90000
    34,'A34         ',  35.0000,1,   1,   1,   1,1.00343,  -8.3191,1.05000,0.95000,1.10000,0.90000
    35,'A35         ', 230.0000,2,   1,   1,   1,1.01016,  -7.6617,1.05000,0.95000,1.10000,0.90000
    36,'A36         ', 230.0000,1,   1,   1,   1,1.00907,  -7.9618,1.05000,0.95000,1.10000,0.90000
    37,'A37         ', 230.0000,1,   1,   1,   1,1.01158, -10.0527,1.05000,0.95000,1.10000,0.90000
    38,'A38         ', 230.0000,1,   1,   1,   1,1.00916,  -7.8165,1.05000,0.95000,1.10000,0.90000
    39,'A39         ',  35.0000,1,   1,   1,   1,0.99233,  -7.1662,1.05000,0.95000,1.10000,0.90000
    40,'A40         ', 115.0000,1,   1,   1,   1,1.01462,  -8.1934,1.05000,0.95000,1.10000,0.90000
    41,'A41         ', 230.0000,1,   1,   1,   1,1.00542, -10.7977,1.05000,0.95000,1.10000,0.90000
    43,'A43         ', 115.0000,2,   1,   1,   1,1.01310,  -9.0149,1.05000,0.95000,1.10000,0.90000
    44,'A44         ', 115.0000,1,   1,   1,   1,1.00915,  -5.6931,1.05000,0.95000,1.10000,0.90000
    45,'A45         ', 230.0000,2,   1,   1,   1,1.00907,  -7.9618,1.05000,0.95000,1.10000,0.90000
    46,'A46         ', 230.0000,2,   1,   1,   1,1.00480, -10.2150,1.05000,0.95000,1.10000,0.90000
    47,'A47         ', 115.0000,2,   1,   1,   1,1.01310,  -7.6504,1.05000,0.95000,1.10000,0.90000
    49,'A49         ',  35.0000,1,   1,   1,   1,1.00343,  -8.3191,1.05000,0.95000,1.10000,0.90000
    50,'A50         ', 115.0000,1,   1,   1,   1,1.01237, -11.5159,1.05000,0.95000,1.10000,0.90000
    51,'A51         ',  13.0000,1,   1,   1,   1,0.99160, -11.1725,1.05000,0.95000,1.10000,0.90000
    52,'A52         ', 230.0000,2,   1,   1,   1,1.00510, -10.7756,1.05000,0.95000,1.10000,0.90000
    53,'A53         ', 115.0000,1,   1,   1,   1,1.01529, -12.5266,1.05000,0.95000,1.10000,0.90000
    54,'A54         ',  35.0000,1,   1,   1,   1,0.99918, -12.5878,1.05000,0.95000,1.10000,0.90000
    55,'A55         ', 230.0000,2,   1,   1,   1,1.01080,  -9.1204,1.05000,0.95000,1.10000,0.90000
    56,'A56         ',  35.0000,1,   1,   1,   1,1.00808,  -9.5930,1.05000,0.95000,1.10000,0.90000
    57,'A57         ', 115.0000,1,   1,   1,   1,0.99459, -15.5102,1.05000,0.95000,1.10000,0.90000
    58,'A58         ', 115.0000,1,   1,   1,   1,1.02204, -11.8355,1.05000,0.95000,1.10000,0.90000
    59,'A59         ',  35.0000,2,   1,   1,   1,1.03407,  -5.7991,1.05000,0.95000,1.10000,0.90000
    60,'A60         ', 115.0000,1,   1,   1,   1,1.00158, -10.3762,1.05000,0.95000,1.10000,0.90000
    61,'A61         ',  13.0000,1,   1,   1,   1,1.01072, -11.9611,1.05000,0.95000,1.10000,0.90000
    62,'A62         ', 115.0000,1,   1,   1,   1,1.01612, -12.4515,1.05000,0.95000,1.10000,0.90000
    63,'A63         ', 230.0000,1,   1,   1,   1,1.00769, -10.2652,1.05000,0.95000,1.10000,0.90000
    64,'A64         ',  35.0000,1,   1,   1,   1,1.00918,  -5.2757,1.05000,0.95000,1.10000,0.90000
    65,'A65         ',  14.0000,2,   1,   1,   1,1.01745,  -8.8403,1.05000,0.95000,1.10000,0.90000
    66,'A66         ', 230.0000,1,   1,   1,   1,1.01006,  -7.7109,1.05000,0.95000,1.10000,0.90000
    67,'A67         ', 115.0000,1,   1,   1,   1,1.00689,  -8.2513,1.05000,0.95000,1.10000,0.90000
    68,'A68         ', 115.0000,1,   1,   1,   1,1.01000, -13.6751,1.05000,0.95000,1.10000,0.90000
    69,'A69         ', 230.0000,1,   1,   1,   1,1.01019,  -7.6534,1.05000,0.95000,1.10000,0.90000
    70,'A70         ',  35.0000,1,   1,   1,   1,1.00086,  -8.3791,1.05000,0.95000,1.10000,0.90000
    71,'A71         ', 115.0000,2,   1,   1,   1,1.01590,  -7.1725,1.05000,0.95000,1.10000,0.90000
    72,'A72         ', 115.0000,1,   1,   1,   1,1.01078, -11.8927,1.05000,0.95000,1.10000,0.90000
    73,'A73         ', 115.0000,1,   1,   1,   1,1.00264, -10.3258,1.05000,0.95000,1.10000,0.90000
    74,'A74         ', 115.0000,1,   1,   1,   1,1.01245, -11.4813,1.05000,0.95000,1.10000,0.90000
    75,'A75         ',  13.0000,1,   1,   1,   1,1.01452,  -9.1608,1.05000,0.95000,1.10000,0.90000
    76,'A76         ', 115.0000,1,   1,   1,   1,1.01704, -12.3605,1.05000,0.95000,1.10000,0.90000
    77,'A77         ',  35.0000,1,   1,   1,   1,0.98869, -11.1380,1.05000,0.95000,1.10000,0.90000
    78,'A78         ',  35.0000,1,   1,   1,   1,0.99514, -11.0071,1.05000,0.95000,1.10000,0.90000
    79,'A79         ', 230.0000,1,   1,   1,   1,1.01154, -10.1989,1.05000,0.95000,1.10000,0.90000
    80,'A80         ',  14.0000,2,   1,   1,   1,1.01647,  -8.9029,1.05000,0.95000,1.10000,0.90000
    81,'A81         ', 115.0000,1,   1,   1,   1,1.01716, -11.1437,1.05000,0.95000,1.10000,0.90000
    82,'A82         ', 115.0000,1,   1,   1,   1,1.01526, -12.5296,1.05000,0.95000,1.10000,0.90000
    83,'A83         ', 115.0000,1,   1,   1,   1,1.01129, -13.5245,1.05000,0.95000,1.10000,0.90000
    84,'A84         ', 115.0000,1,   1,   1,   1,1.00956, -13.7203,1.05000,0.95000,1.10000,0.90000
    85,'A85         ', 115.0000,1,   1,   1,   1,0.99454, -15.5160,1.05000,0.95000,1.10000,0.90000
    86,'A86         ', 230.0000,2,   1,   1,   1,1.01070,  -6.9466,1.05000,0.95000,1.10000,0.90000
    87,'A87         ', 230.0000,2,   1,   1,   1,1.00554, -10.8033,1.05000,0.95000,1.10000,0.90000
    88,'A88         ',  35.0000,1,   1,   1,   1,1.00692,  -8.8060,1.05000,0.95000,1.10000,0.90000
    89,'A89         ',  35.0000,1,   1,   1,   1,0.99922,  -8.0053,1.05000,0.95000,1.10000,0.90000
    90,'A90         ', 230.0000,2,   1,   1,   1,1.00780, -10.1962,1.05000,0.95000,1.10000,0.90000
    91,'A91         ', 115.0000,1,   1,   1,   1,1.01174, -13.4483,1.05000,0.95000,1.10000,0.90000
    92,'A92         ', 115.0000,1,   1,   1,   1,1.00953, -12.4404,1.05000,0.95000,1.10000,0.90000
    93,'A93         ', 115.0000,2,   1,   1,   1,1.01610,  -8.9432,1.05000,0.95000,1.10000,0.90000
    94,'A94         ', 115.0000,1,   1,   1,   1,0.99292, -11.0944,1.05000,0.95000,1.10000,0.90000
    95,'B95         ', 345.0000,1,   1,   2,   1,0.99466, -14.9950,1.05000,0.95000,1.10000,0.90000
    96,'B96         ', 345.0000,1,   1,   2,   1,0.99462, -14.9996,1.05000,0.95000,1.10000,0.90000
    97,'B97         ', 345.0000,1,   1,   2,   1,0.99678, -15.0106,1.05000,0.95000,1.10000,0.90000
    98,'B98         ', 345.0000,2,   1,   2,   1,0.99685, -15.0145,1.05000,0.95000,1.10000,0.90000
    99,'B99         ', 345.0000,2,   1,   2,   1,0.99788, -14.5659,1.05000,0.95000,1.10000,0.90000
   100,'B100        ', 345.0000,2,   1,   2,   1,0.99790, -14.5810,1.05000,0.95000,1.10000,0.90000
   101,'B101        ', 345.0000,1,   1,   2,   1,1.01036, -15.9919,1.05000,0.95000,1.10000,0.90000
   102,'B102        ', 345.0000,1,   1,   2,   1,1.01243, -15.8309,1.05000,0.95000,1.10000,0.90000
   103,'B103        ', 138.0000,1,   1,   2,   1,1.02467, -12.6459,1.05000,0.95000,1.10000,0.90000
   104,'B104        ', 138.0000,1,   1,   2,   1,1.01218,  12.9257,1.05000,0.95000,1.10000,0.90000
   105,'B105        ', 138.0000,1,   1,   2,   1,1.01233,  12.7278,1.05000,0.95000,1.10000,0.90000
   106,'B106        ', 138.0000,1,   1,   2,   1,1.01817,  -4.0607,1.05000,0.95000,1.10000,0.90000
   107,'B107        ', 138.0000,1,   1,   2,   1,1.01819,  -4.0636,1.05000,0.95000,1.10000,0.90000
   108,'B108        ', 138.0000,1,   1,   2,   1,1.02707,  16.8382,1.05000,0.95000,1.10000,0.90000
   109,'B109        ', 138.0000,1,   1,   2,   1,1.01267, -13.9640,1.05000,0.95000,1.10000,0.90000
   110,'B110        ', 138.0000,1,   1,   2,   1,1.01823,  -4.0360,1.05000,0.95000,1.10000,0.90000
   111,'B111        ', 138.0000,1,   1,   2,   1,1.01823,  -4.0385,1.05000,0.95000,1.10000,0.90000
   112,'B112        ', 138.0000,1,   1,   2,   1,1.02681,  -5.3447,1.05000,0.95000,1.10000,0.90000
   113,'B113        ', 138.0000,1,   1,   2,   1,1.02681,  -5.3447,1.05000,0.95000,1.10000,0.90000
   114,'B114        ', 138.0000,1,   1,   2,   1,1.02691,  -5.3371,1.05000,0.95000,1.10000,0.90000
   115,'B115        ', 138.0000,1,   1,   2,   1,1.01258, -14.3825,1.05000,0.95000,1.10000,0.90000
   116,'B116        ', 138.0000,2,   1,   2,   1,1.01936, -12.3887,1.05000,0.95000,1.10000,0.90000
   117,'B117        ', 138.0000,2,   1,   2,   1,1.01954, -12.4342,1.05000,0.95000,1.10000,0.90000
   118,'B118        ', 138.0000,1,   1,   2,   1,1.01934, -13.1638,1.05000,0.95000,1.10000,0.90000
   119,'B119        ', 138.0000,1,   1,   2,   1,1.01946, -13.1551,1.05000,0.95000,1.10000,0.90000
   120,'B120        ', 138.0000,1,   1,   2,   1,1.01223, -14.1289,1.05000,0.95000,1.10000,0.90000
   121,'B121        ', 138.0000,2,   1,   2,   1,1.01539, -13.6155,1.05000,0.95000,1.10000,0.90000
   122,'B122        ', 138.0000,1,   1,   2,   1,1.01542, -13.6125,1.05000,0.95000,1.10000,0.90000
   123,'B123        ', 138.0000,1,   1,   2,   1,1.01542, -13.6125,1.05000,0.95000,1.10000,0.90000
   124,'B124        ', 138.0000,1,   1,   2,   1,1.01539, -13.6156,1.05000,0.95000,1.10000,0.90000
   125,'B125        ', 138.0000,1,   1,   2,   1,1.01272, -13.9600,1.05000,0.95000,1.10000,0.90000
   126,'B126        ', 138.0000,1,   1,   2,   1,1.01259, -14.3826,1.05000,0.95000,1.10000,0.90000
   127,'B127        ', 138.0000,1,   1,   2,   1,1.01577,  -3.6378,1.05000,0.95000,1.10000,0.90000
   128,'B128        ', 138.0000,1,   1,   2,   1,1.01553,  -3.6192,1.05000,0.95000,1.10000,0.90000
   129,'B129        ', 138.0000,1,   1,   2,   1,1.00133,  -1.9619,1.05000,0.95000,1.10000,0.90000
   130,'B130        ', 138.0000,1,   1,   2,   1,1.00148,  -1.9596,1.05000,0.95000,1.10000,0.90000
   131,'B131        ', 138.0000,2,   1,   2,   1,1.02667,  -5.3581,1.05000,0.95000,1.10000,0.90000
   132,'B132        ', 138.0000,1,   1,   2,   1,1.01922, -12.3986,1.05000,0.95000,1.10000,0.90000
   133,'B133        ', 138.0000,2,   1,   2,   1,1.01697, -14.8060,1.05000,0.95000,1.10000,0.90000
   134,'B134        ', 138.0000,2,   1,   2,   1,0.99208, -16.6674,1.05000,0.95000,1.10000,0.90000
   135,'B135        ', 138.0000,1,   1,   2,   1,1.01236, -13.9882,1.05000,0.95000,1.10000,0.90000
   136,'B136        ', 138.0000,1,   1,   2,   1,1.01536, -13.6182,1.05000,0.95000,1.10000,0.90000
   137,'B137        ', 138.0000,1,   1,   2,   1,1.00378,  -4.6417,1.05000,0.95000,1.10000,0.90000
   138,'B138        ', 138.0000,1,   1,   2,   1,1.00053,   5.2853,1.05000,0.95000,1.10000,0.90000
   139,'B139        ', 138.0000,1,   1,   2,   1,1.00053,   5.2854,1.05000,0.95000,1.10000,0.90000
   140,'B140        ', 138.0000,1,   1,   2,   1,1.01851,  -3.9860,1.05000,0.95000,1.10000,0.90000
   141,'B141        ', 138.0000,1,   1,   2,   1,1.01950,  -3.8963,1.05000,0.95000,1.10000,0.90000
   142,'B142        ', 138.0000,1,   1,   2,   1,1.01974, -13.1607,1.05000,0.95000,1.10000,0.90000
   143,'B143        ', 138.0000,1,   1,   2,   1,1.01986, -13.1750,1.05000,0.95000,1.10000,0.90000
   144,'B144        ', 138.0000,1,   1,   2,   1,1.01272, -13.9599,1.05000,0.95000,1.10000,0.90000
   145,'B145        ', 138.0000,1,   1,   2,   1,1.01978, -12.5216,1.05000,0.95000,1.10000,0.90000
   146,'B146        ', 138.0000,1,   1,   2,   1,1.01585,  -4.5713,1.05000,0.95000,1.10000,0.90000
   147,'B147        ', 138.0000,1,   1,   2,   1,1.01584,  -4.5841,1.05000,0.95000,1.10000,0.90000
   148,'B148        ', 138.0000,1,   1,   2,   1,1.01608, -15.1615,1.05000,0.95000,1.10000,0.90000
   149,'B149        ', 138.0000,1,   1,   2,   1,1.01648, -15.1424,1.05000,0.95000,1.10000,0.90000
   150,'B150        ', 138.0000,1,   1,   2,   1,1.01251, -14.3865,1.05000,0.95000,1.10000,0.90000
   151,'B151        ', 138.0000,2,   1,   2,   1,1.00241,  -0.5489,1.05000,0.95000,1.10000,0.90000
   152,'B152        ', 138.0000,2,   1,   2,   1,1.02455, -12.6441,1.05000,0.95000,1.10000,0.90000
   153,'B153        ', 138.0000,1,   1,   2,   1,1.01911, -12.7582,1.05000,0.95000,1.10000,0.90000
   154,'B154        ', 138.0000,1,   1,   2,   1,1.01920, -12.7756,1.05000,0.95000,1.10000,0.90000
   155,'B155        ', 138.0000,1,   1,   2,   1,1.01854,  -4.0850,1.05000,0.95000,1.10000,0.90000
   156,'B156        ', 138.0000,2,   1,   2,   1,1.01861,  -4.0692,1.05000,0.95000,1.10000,0.90000
   157,'B157        ', 138.0000,1,   1,   2,   1,1.02379,  -4.2683,1.05000,0.95000,1.10000,0.90000
   158,'B158        ', 138.0000,1,   1,   2,   1,1.02389,  -4.2624,1.05000,0.95000,1.10000,0.90000
   159,'B159        ', 138.0000,2,   1,   2,   1,1.01930,  -4.5049,1.05000,0.95000,1.10000,0.90000
   160,'B160        ', 138.0000,1,   1,   2,   1,1.01922,  -4.5029,1.05000,0.95000,1.10000,0.90000
   161,'B161        ', 138.0000,1,   1,   2,   1,1.01706, -13.4050,1.05000,0.95000,1.10000,0.90000
   162,'B162        ', 138.0000,1,   1,   2,   1,1.01694, -13.4274,1.05000,0.95000,1.10000,0.90000
   163,'B163        ', 138.0000,1,   1,   2,   1,1.01884,  -4.2162,1.05000,0.95000,1.10000,0.90000
   164,'B164        ', 138.0000,1,   1,   2,   1,1.01881,  -4.2108,1.05000,0.95000,1.10000,0.90000
   165,'B165        ', 138.0000,1,   1,   2,   1,1.01847,  -4.0899,1.05000,0.95000,1.10000,0.90000
   166,'B166        ', 138.0000,1,   1,   2,   1,1.01856,  -4.0731,1.05000,0.95000,1.10000,0.90000
   167,'B167        ', 138.0000,1,   1,   2,   1,1.01810, -13.1838,1.05000,0.95000,1.10000,0.90000
   168,'B168        ', 138.0000,1,   1,   2,   1,1.01800, -13.1495,1.05000,0.95000,1.10000,0.90000
   169,'B169        ', 138.0000,1,   1,   2,   1,1.02187,  15.7148,1.05000,0.95000,1.10000,0.90000
   170,'B170        ', 138.0000,1,   1,   2,   1,1.02196,  15.7215,1.05000,0.95000,1.10000,0.90000
   171,'B171        ', 138.0000,1,   1,   2,   1,1.01894,  -4.2581,1.05000,0.95000,1.10000,0.90000
   172,'B172        ', 138.0000,1,   1,   2,   1,1.01892,  -4.2553,1.05000,0.95000,1.10000,0.90000
   173,'B173        ', 138.0000,1,   1,   2,   1,1.00102,  -3.0512,1.05000,0.95000,1.10000,0.90000
   174,'B174        ', 138.0000,1,   1,   2,   1,1.00171,  -3.0017,1.05000,0.95000,1.10000,0.90000
   175,'B175        ', 138.0000,1,   1,   2,   1,1.01401, -14.7974,1.05000,0.95000,1.10000,0.90000
   176,'B176        ', 138.0000,1,   1,   2,   1,1.01413, -14.8115,1.05000,0.95000,1.10000,0.90000
   177,'B177        ', 138.0000,1,   1,   2,   1,1.01246, -14.3062,1.05000,0.95000,1.10000,0.90000
   178,'B178        ', 138.0000,1,   1,   2,   1,1.01246, -14.3062,1.05000,0.95000,1.10000,0.90000
   179,'B179        ', 138.0000,1,   1,   2,   1,1.00210,   7.4486,1.05000,0.95000,1.10000,0.90000
   180,'B180        ', 138.0000,1,   1,   2,   1,1.00162,   7.6453,1.05000,0.95000,1.10000,0.90000
   181,'B181        ', 138.0000,1,   1,   2,   1,1.01002,  -2.7896,1.05000,0.95000,1.10000,0.90000
   182,'B182        ', 138.0000,1,   1,   2,   1,1.01023,  -2.8105,1.05000,0.95000,1.10000,0.90000
   183,'B183        ', 138.0000,1,   1,   2,   1,1.00563,  -1.6786,1.05000,0.95000,1.10000,0.90000
   184,'B184        ', 138.0000,1,   1,   2,   1,1.02068, -12.4994,1.05000,0.95000,1.10000,0.90000
   185,'B185        ', 138.0000,1,   1,   2,   1,1.02071, -12.5339,1.05000,0.95000,1.10000,0.90000
   186,'B186        ', 138.0000,1,   1,   2,   1,1.02090, -12.4882,1.05000,0.95000,1.10000,0.90000
   187,'B187        ', 138.0000,1,   1,   2,   1,1.02098, -12.5211,1.05000,0.95000,1.10000,0.90000
   188,'B188        ', 138.0000,1,   1,   2,   1,1.00374,  -1.0531,1.05000,0.95000,1.10000,0.90000
   189,'B189        ', 138.0000,1,   1,   2,   1,1.00355,  -1.0299,1.05000,0.95000,1.10000,0.90000
   190,'B190        ', 138.0000,2,   1,   2,   1,1.03300,  -4.8176,1.05000,0.95000,1.10000,0.90000
   191,'B191        ', 138.0000,1,   1,   2,   1,1.01262, -14.0403,1.05000,0.95000,1.10000,0.90000
   192,'B192        ', 138.0000,1,   1,   2,   1,1.01266, -14.0379,1.05000,0.95000,1.10000,0.90000
   193,'B193        ', 138.0000,1,   1,   2,   1,1.01247, -13.9791,1.05000,0.95000,1.10000,0.90000
   194,'B194        ', 138.0000,1,   1,   2,   1,1.02305, -10.0785,1.05000,0.95000,1.10000,0.90000
   195,'B195        ', 138.0000,1,   1,   2,   1,1.02319, -10.0677,1.05000,0.95000,1.10000,0.90000
   196,'B196        ', 138.0000,1,   1,   2,   1,1.03301,  -4.8177,1.05000,0.95000,1.10000,0.90000
   197,'B197        ', 138.0000,1,   1,   2,   1,1.01542, -13.6125,1.05000,0.95000,1.10000,0.90000
   198,'B198        ', 138.0000,1,   1,   2,   1,1.01224, -14.1930,1.05000,0.95000,1.10000,0.90000
   199,'B199        ', 138.0000,1,   1,   2,   1,1.01224, -14.1928,1.05000,0.95000,1.10000,0.90000
   200,'B200        ', 138.0000,1,   1,   2,   1,1.01831,  -4.0893,1.05000,0.95000,1.10000,0.90000
   201,'B201        ', 138.0000,1,   1,   2,   1,1.01835,  -4.0897,1.05000,0.95000,1.10000,0.90000
   202,'B202        ', 138.0000,1,   1,   2,   1,1.01823,  -4.0754,1.05000,0.95000,1.10000,0.90000
   203,'B203        ', 138.0000,1,   1,   2,   1,1.01821,  -4.0725,1.05000,0.95000,1.10000,0.90000
   204,'B204        ', 138.0000,1,   1,   2,   1,1.01837,  -4.0627,1.05000,0.95000,1.10000,0.90000
...
0 / END OF BUS DATA, BEGIN LOAD DATA
     1,'1 ',1,   1,  11,    11.986,     5.046,     0.000,     0.000,     0.000,     0.000,   1,1,0
     2,'1 ',1,   1,  11,     6.910,     1.536,     0.000,     0.000,     0.000,     0.000,   1,1,0
     2,'2 ',1,   1,  11,     0.086,     0.398,     0.000,     0.000,     0.000,     0.000,   1,1,0
     2,'99',0,   1,  11,    16.545,    15.406,     0.000,     0.000,     0.000,     0.000,   1,1,0
     3,'1 ',1,   1,  11,     6.878,     1.950,     0.000,     0.000,     0.000,     0.000,   1,1,0
     5,'1 ',1,   1,  11,     0.382,    -0.990,     0.000,     0.000,     0.000,     0.000,   1,1,0
     7,'1 ',1,   1,  11,     5.303,     3.034,     0.000,     0.000,     0.000,     0.000,   1,1,0
     8,'1 ',1,   1,  11,     1.653,     0.281,     0.000,     0.000,     0.000,     0.000,   1,1,0
     9,'1 ',1,   1,  11,    10.216,     2.004,     0.000,     0.000,     0.000,     0.000,   1,1,0
    12,'1 ',1,   1,  11,     7.596,     4.991,     0.000,     0.000,     0.000,     0.000,   1,1,0
    13,'1 ',1,   1,  11,     6.301,     1.731,     0.000,     0.000,     0.000,     0.000,   1,1,0
    15,'1 ',1,   1,  11,    10.130,     2.613,     0.000,     0.000,     0.000,     0.000,   1,1,0
    20,'1 ',1,   1,  11,     9.912,    -3.151,     0.000,     0.000,     0.000,     0.000,   1,1,0
    21,'1 ',1,   1,  11,     6.153,    -0.827,     0.000,     0.000,     0.000,     0.000,   1,1,0
    28,'1 ',1,   1,  11,    18.880,     2.246,     0.000,     0.000,     0.000,     0.000,   1,1,0
    32,'1 ',1,   1,  11,     5.436,     0.912,     0.000,     0.000,     0.000,     0.000,   1,1,0
    34,'1 ',1,   1,  11,     7.611,     6.255,     0.000,     0.000,     0.000,     0.000,   1,1,0
    36,'99',0,   1,  11,   108.412,    -4.520,     0.000,     0.000,     0.000,     0.000,   1,1,0
    37,'1 ',1,   1,  11,    -6.356,    -2.527,     0.000,     0.000,     0.000,     0.000,   1,1,0
    39,'1 ',1,   1,  11,    13.523,     5.443,     0.000,     0.000,     0.000,     0.000,   1,1,0
    43,'1 ',1,   1,  11,     1.560,     0.351,     0.000,     0.000,     0.000,     0.000,   1,1,0
    44,'1 ',1,   1,  11,     6.878,     1.747,     0.000,     0.000,     0.000,     0.000,   1,1,0
    47,'1 ',1,   1,  11,     8.196,    -1.162,     0.000,     0.000,     0.000,     0.000,   1,1,0
    49,'1 ',1,   1,  11,     7.611,     6.255,     0.000,     0.000,     0.000,     0.000,   1,1,0
    51,'1 ',1,   1,  11,     3.899,     2.340,     0.000,     0.000,     0.000,     0.000,   1,1,0
    53,'1 ',1,   1,  11,     5.443,     0.421,     0.000,     0.000,     0.000,     0.000,   1,1,0
    54,'1 ',1,   1,  11,    11.129,    -0.842,     0.000,     0.000,     0.000,     0.000,   1,1,0
    56,'1 ',1,   1,  11,     4.882,     4.515,     0.000,     0.000,     0.000,     0.000,   1,1,0
    57,'1 ',1,   1,  11,     5.592,    -0.211,     0.000,     0.000,     0.000,     0.000,   1,1,0
    58,'99',0,   1,  11,    10.106,    10.951,     0.000,     0.000,     0.000,     0.000,   1,1,0
    59,'1 ',1,   1,  11,     6.949,     4.102,     0.000,     0.000,     0.000,     0.000,   1,1,0
    61,'1 ',1,   1,  11,     2.924,    -0.359,     0.000,     0.000,     0.000,     0.000,   1,1,0
    62,'1 ',1,   1,  11,     6.075,    -0.211,     0.000,     0.000,     0.000,     0.000,   1,1,0
    63,'1 ',1,   1,  11,    23.022,     0.070,     0.000,     0.000,     0.000,     0.000,   1,1,0
    64,'1 ',1,   1,  11,     6.605,     5.857,     0.000,     0.000,     0.000,     0.000,   1,1,0
    65,'1 ',1,   1,  11,     0.710,     0.460,     0.000,     0.000,     0.000,     0.000,   1,1,0
    68,'1 ',1,   1,  11,     5.482,    -0.203,     0.000,     0.000,     0.000,     0.000,   1,1,0
    70,'1 ',1,   1,  11,     4.320,    -2.706,     0.000,     0.000,     0.000,     0.000,   1,1,0
    71,'1 ',1,   1,  11,     4.383,    -1.365,     0.000,     0.000,     0.000,     0.000,   1,1,0
    71,'2 ',1,   1,  11,     4.383,    -1.365,     0.000,     0.000,     0.000,     0.000,   1,1,0
    72,'1 ',1,   1,  11,     4.172,     0.273,     0.000,     0.000,     0.000,     0.000,   1,1,0
    74,'1 ',1,   1,  11,    -0.257,     0.273,     0.000,     0.000,     0.000,     0.000,   1,1,0
    74,'2 ',1,   1,  11,     5.436,     3.439,     0.000,     0.000,     0.000,     0.000,   1,1,0
    75,'1 ',1,   1,  11,     2.324,    -1.887,     0.000,     0.000,     0.000,     0.000,   1,1,0
    76,'1 ',1,   1,  11,     4.164,    -0.211,     0.000,     0.000,     0.000,     0.000,   1,1,0
    77,'1 ',1,   1,  11,    18.272,     0.328,     0.000,     0.000,     0.000,     0.000,   1,1,0
    78,'1 ',1,   1,  11,    10.879,     2.683,     0.000,     0.000,     0.000,     0.000,   1,1,0
    80,'1 ',1,   1,  11,     0.702,     0.421,     0.000,     0.000,     0.000,     0.000,   1,1,0
    81,'99',0,   1,  11,    30.844,    22.078,     0.000,     0.000,     0.000,     0.000,   1,1,0
    82,'1 ',1,   1,  11,     5.443,     0.421,     0.000,     0.000,     0.000,     0.000,   1,1,0
    84,'1 ',1,   1,  11,     6.754,     0.429,     0.000,     0.000,     0.000,     0.000,   1,1,0
    85,'1 ',1,   1,  11,    10.661,     2.987,     0.000,     0.000,     0.000,     0.000,   1,1,0
    88,'1 ',1,   1,  11,    -0.203,     0.008,     0.000,     0.000,     0.000,     0.000,   1,1,0
    89,'1 ',1,   1,  11,    15.246,     0.016,     0.000,     0.000,     0.000,     0.000,   1,1,0
    92,'1 ',1,   1,  11,     3.533,    -0.211,     0.000,     0.000,     0.000,     0.000,   1,1,0
    94,'1 ',1,   1,  11,     1.692,     1.957,     0.000,     0.000,     0.000,     0.000,   1,1,0
    96,'99',1,   1,   4,    17.281,    30.692,     0.000,     0.000,     0.000,     0.000,   1,1,0
    97,'99',1,   1,   4,    14.686,    19.735,     0.000,     0.000,     0.000,     0.000,   1,1,0
    99,'1 ',1,   1,   4,     5.459,    14.038,     0.000,     0.000,     0.000,     0.000,   1,1,0
   100,'1 ',1,   1,   4,     6.239,    16.377,     0.000,     0.000,     0.000,     0.000,   1,1,0
   101,'99',1,   1,   4,    80.141,    15.275,     0.000,     0.000,     0.000,     0.000,   1,1,0
   102,'99',0,   1,   4,     1.156,   -45.892,     0.000,     0.000,     0.000,     0.000,   1,1,0
   105,'1 ',1,   1,   4,     3.338,     1.232,     0.000,     0.000,     0.000,     0.000,   1,1,0
   106,'1 ',1,   1,   4,     4.274,     1.794,     0.000,     0.000,     0.000,     0.000,   1,1,0
   108,'1 ',1,   1,   4,     6.005,     1.996,     0.000,     0.000,     0.000,     0.000,   1,1,0
   108,'99',1,   1,   4,     1.610,   -12.595,     0.000,     0.000,     0.000,     0.000,   1,1,0
   109,'1 ',1,   1,   4,     6.418,     1.685,     0.000,     0.000,     0.000,     0.000,   1,1,0
   110,'1 ',1,   1,   4,     1.458,     0.624,     0.000,     0.000,     0.000,     0.000,   1,1,0
   111,'1 ',1,   1,   4,     2.605,     1.107,     0.000,     0.000,     0.000,     0.000,   1,1,0
   112,'1 ',1,   1,   4,    10.544,     3.923,     0.000,     0.000,     0.000,     0.000,   1,1,0
   115,'1 ',1,   1,   4,     3.751,     1.349,     0.000,     0.000,     0.000,     0.000,   1,1,0
   116,'1 ',1,   1,   4,    18.413,    16.455,     0.000,     0.000,     0.000,     0.000,   1,1,0
   118,'1 ',1,   1,   4,     4.258,     1.801,     0.000,     0.000,     0.000,     0.000,   1,1,0
   120,'1 ',1,   1,   4,     7.502,     2.449,     0.000,     0.000,     0.000,     0.000,   1,1,0
   121,'1 ',1,   1,   4,     0.000,     0.000,     0.000,     0.000,     0.000,     0.000,   1,1,0
   128,'1 ',1,   1,   4,     0.780,     0.296,     0.000,     0.000,     0.000,     0.000,   1,1,0
   129,'1 ',1,   1,   4,     3.502,     2.425,     0.000,     0.000,     0.000,     0.000,   1,1,0
   131,'1 ',1,   1,   4,    62.389,    30.415,     0.000,     0.000,     0.000,     0.000,   1,1,0
   132,'1 ',1,   1,   4,     4.079,     1.412,     0.000,     0.000,     0.000,     0.000,   1,1,0
   133,'1 ',1,   1,   4,     1.497,     0.468,     0.000,     0.000,     0.000,     0.000,   1,1,0
   134,'1 ',1,   1,   4,    41.333,     2.000,     0.000,     0.000,     0.000,     0.000,   1,1,0
   135,'1 ',1,   1,   4,     4.679,     1.661,     0.000,     0.000,     0.000,     0.000,   1,1,0
   136,'1 ',1,   1,   4,     2.168,     0.702,     0.000,     0.000,     0.000,     0.000,   1,1,0
   137,'1 ',1,   1,   4,     8.243,     2.737,     0.000,     0.000,     0.000,     0.000,   1,1,0
   137,'99',0,   1,   4,    28.183,   -12.764,     0.000,     0.000,     0.000,     0.000,   1,1,0
   138,'1 ',1,   1,   4,     0.335,     0.078,     0.000,     0.000,     0.000,     0.000,   1,1,0
   140,'1 ',1,   1,   4,     2.168,     1.295,     0.000,     0.000,     0.000,     0.000,   1,1,0
   141,'1 ',1,   1,   4,     4.547,     0.523,     0.000,     0.000,     0.000,     0.000,   1,1,0
   142,'1 ',1,   1,   4,     6.332,     2.152,     0.000,     0.000,     0.000,     0.000,   1,1,0
   143,'99',0,   1,   4,     0.426,     1.249,     0.000,     0.000,     0.000,     0.000,   1,1,0
   145,'99',0,   1,   4,    53.244,    16.969,     0.000,     0.000,     0.000,     0.000,   1,1,0
   146,'1 ',1,   1,   4,     1.248,     0.312,     0.000,     0.000,     0.000,     0.000,   1,1,0
   147,'1 ',1,   1,   4,     0.834,     0.382,     0.000,     0.000,     0.000,     0.000,   1,1,0
   148,'1 ',1,   1,   4,     5.093,     2.176,     0.000,     0.000,     0.000,     0.000,   1,1,0
   149,'99',0,   1,   4,     9.227,    -8.412,     0.000,     0.000,     0.000,     0.000,   1,1,0
   150,'1 ',1,   1,   4,     3.751,     1.178,     0.000,     0.000,     0.000,     0.000,   1,1,0
   151,'1 ',1,   1,   4,    14.747,    23.560,     0.000,     0.000,     0.000,     0.000,   1,1,0
   152,'1 ',1,   1,   4,     5.459,    10.918,     0.000,     0.000,     0.000,     0.000,   1,1,0
   153,'1 ',1,   1,   4,     7.089,     2.386,     0.000,     0.000,     0.000,     0.000,   1,1,0
   157,'1 ',1,   1,   4,     2.293,     0.975,     0.000,     0.000,     0.000,     0.000,   1,1,0
   159,'1 ',1,   1,   4,    11.347,     0.429,     0.000,     0.000,     0.000,     0.000,   1,1,0
   160,'1 ',1,   1,   4,     8.758,     2.074,     0.000,     0.000,     0.000,     0.000,   1,1,0
   161,'1 ',1,   1,   4,     4.976,     2.160,     0.000,     0.000,     0.000,     0.000,   1,1,0
   162,'1 ',1,   1,   4,     6.481,     2.870,     0.000,     0.000,     0.000,     0.000,   1,1,0
   163,'1 ',1,   1,   4,     0.663,     0.062,     0.000,     0.000,     0.000,     0.000,   1,1,0
   165,'1 ',1,   1,   4,     0.515,     0.304,     0.000,     0.000,     0.000,     0.000,   1,1,0
   166,'1 ',1,   1,   4,     0.413,     0.242,     0.000,     0.000,     0.000,     0.000,   1,1,0
   168,'1 ',1,   1,   4,     8.087,     2.698,     0.000,     0.000,     0.000,     0.000,   1,1,0
   169,'1 ',1,   1,   4,     2.004,     0.725,     0.000,     0.000,     0.000,     0.000,   1,1,0
   171,'1 ',1,   1,   4,     4.172,     0.593,     0.000,     0.000,     0.000,     0.000,   1,1,0
   173,'1 ',1,   1,   4,     5.662,     2.113,     0.000,     0.000,     0.000,     0.000,   1,1,0
   175,'1 ',1,   1,   4,     2.332,     0.889,     0.000,     0.000,     0.000,     0.000,   1,1,0
   176,'1 ',1,   1,   4,     5.007,     1.778,     0.000,     0.000,     0.000,     0.000,   1,1,0
   179,'1 ',1,   1,   4,     4.671,     1.607,     0.000,     0.000,     0.000,     0.000,   1,1,0
   181,'1 ',1,   1,   4,     3.541,     1.474,     0.000,     0.000,     0.000,     0.000,   1,1,0
   182,'1 ',1,   1,   4,     3.338,     1.396,     0.000,     0.000,     0.000,     0.000,   1,1,0
   184,'1 ',1,   1,   4,     2.839,     0.959,     0.000,     0.000,     0.000,     0.000,   1,1,0
   185,'1 ',1,   1,   4,     3.330,     1.209,     0.000,     0.000,     0.000,     0.000,   1,1,0
   188,'1 ',1,   1,   4,     0.585,     0.289,     0.000,     0.000,     0.000,     0.000,   1,1,0
   189,'1 ',1,   1,   4,     0.998,     0.452,     0.000,     0.000,     0.000,     0.000,   1,1,0
   191,'1 ',1,   1,   4,     3.587,     1.349,     0.000,     0.000,     0.000,     0.000,   1,1,0
   193,'1 ',1,   1,   4,     3.587,     1.271,     0.000,     0.000,     0.000,     0.000,   1,1,0
   194,'1 ',1,   1,   4,     9.507,     3.088,     0.000,     0.000,     0.000,     0.000,   1,1,0
   195,'99',0,   1,   4,    18.155,     5.789,     0.000,     0.000,     0.000,     0.000,   1,1,0
   196,'1 ',1,   1,   4,     0.000,     0.000,     0.000,     0.000,     0.000,     0.000,   1,1,0
   198,'1 ',1,   1,   4,     3.002,     1.076,     0.000,     0.000,     0.000,     0.000,   1,1,0
   200,'1 ',1,   1,   4,     4.141,     1.154,     0.000,     0.000,     0.000,     0.000,   1,1,0
   201,'1 ',1,   1,   4,     5.787,     1.568,     0.000,     0.000,     0.000,     0.000,   1,1,0
   202,'1 ',1,   1,   4,     1.677,     0.437,     0.000,     0.000,     0.000,     0.000,   1,1,0
   204,'1 ',1,   1,   4,     9.218,     3.634,     0.000,     0.000,     0.000,     0.000,   1,1,0
   205,'1 ',1,   1,   4,     8.742,     3.775,     0.000,     0.000,     0.000,     0.000,   1,1,0
   206,'1 ',1,   1,   4,     3.221,     1.326,     0.000,     0.000,     0.000,     0.000,   1,1,0
   207,'1 ',1,   1,   4,     2.004,     0.811,     0.000,     0.000,     0.000,     0.000,   1,1,0
   208,'99',1,   1,   4,    26.802,    -1.316,     0.000,     0.000,     0.000,     0.000,   1,1,0
   209,'1 ',1,   1,   4,     0.413,     0.234,     0.000,     0.000,     0.000,     0.000,   1,1,0
   213,'99',1,   1,   9,    37.250,    12.964,     0.000,     0.000,     0.000,     0.000,   1,1,0
   214,'99',1,   1,   9,   212.930,    17.286,     0.000,     0.000,     0.000,     0.000,   1,1,0
   216,'99',1,   1,   9,    60.359,    35.133,     0.000,     0.000,     0.000,     0.000,   1,1,0
   220,'99',0,   1,   9,   659.876,    -1.015,     0.000,     0.000,     0.000,     0.000,   1,1,0
   221,'1 ',1,   1,   9,    25.080,    40.607,     0.000,     0.000,     0.000,     0.000,   1,1,0
   222,'1 ',1,   1,   9,    36.154,    71.802,     0.000,     0.000,     0.000,     0.000,   1,1,0
   223,'1 ',1,   1,   9,    46.792,    93.584,     0.000,     0.000,     0.000,     0.000,   1,1,0
   224,'1 ',1,   1,   9,    46.792,    93.584,     0.000,     0.000,     0.000,     0.000,   1,1,0
   224,'99',1,   1,   9,   783.436,   128.479,     0.000,     0.000,     0.000,     0.000,   1,1,0
   225,'99',1,   1,   9,   291.702,    65.965,     0.000,     0.000,     0.000,     0.000,   1,1,0
   226,'99',1,   1,   9,    55.608,    45.821,     0.000,     0.000,     0.000,     0.000,   1,1,0
   227,'99',1,   1,   9,    53.079,   -42.379,     0.000,     0.000,     0.000,     0.000,   1,1,0
   228,'1 ',1,   1,   9,    30.259,    -2.106,     0.000,     0.000,     0.000,     0.000,   1,1,0
   229,'99',1,   1,   9,    10.953,    19.915,     0.000,     0.000,     0.000,     0.000,   1,1,0
   231,'99',1,   1,   9,   117.050,    43.363,     0.000,     0.000,     0.000,     0.000,   1,1,0
   234,'99',1,   1,   9,     5.798,    29.947,     0.000,     0.000,     0.000,     0.000,   1,1,0
   235,'99',1,   1,   9,    38.623,    31.513,     0.000,     0.000,     0.000,     0.000,   1,1,0
   236,'1 ',1,   1,   9,     6.005,    15.597,     0.000,     0.000,     0.000,     0.000,   1,1,0
   236,'99',1,   1,   9,   242.371,    -9.977,     0.000,     0.000,     0.000,     0.000,   1,1,0
   237,'1 ',1,   1,   9,     3.002,     0.780,     0.000,     0.000,     0.000,     0.000,   1,1,0
   238,'1 ',1,   1,   9,     1.770,     0.866,     0.000,     0.000,     0.000,     0.000,   1,1,0
   239,'1 ',1,   1,   9,     1.232,     0.312,     0.000,     0.000,     0.000,     0.000,   1,1,0
   240,'1 ',1,   1,   9,     3.463,     0.858,     0.000,     0.000,     0.000,     0.000,   1,1,0
   241,'1 ',1,   1,   9,     3.619,     0.312,     0.000,     0.000,     0.000,     0.000,   1,1,0
   241,'99',1,   1,   9,     2.777,    -0.217,     0.000,     0.000,     0.000,     0.000,   1,1,0
   242,'1 ',1,   1,   9,    10.832,     6.052,     0.000,     0.000,     0.000,     0.000,   1,1,0
   243,'1 ',1,   1,   9,    15.223,     8.758,     0.000,     0.000,     0.000,     0.000,   1,1,0
   245,'99',1,   1,   9,    62.368,     7.165,     0.000,     0.000,     0.000,     0.000,   1,1,0
   246,'1 ',1,   1,   9,    15.597,    31.195,     0.000,     0.000,     0.000,     0.000,   1,1,0
   247,'1 ',1,   1,   9,    15.933,    16.081,     0.000,     0.000,     0.000,     0.000,   1,1,0
   248,'1 ',1,   1,   9,    28.465,     9.366,     0.000,     0.000,     0.000,     0.000,   1,1,0
   249,'99',1,   1,   9,    64.787,     8.448,     0.000,     0.000,     0.000,     0.000,   1,1,0
   250,'1 ',1,   1,   9,     0.117,     0.523,     0.000,     0.000,     0.000,     0.000,   1,1,0
   251,'1 ',1,   1,   9,    14.443,     9.553,     0.000,     0.000,     0.000,     0.000,   1,1,0
   252,'1 ',1,   1,   9,    10.988,     4.781,     0.000,     0.000,     0.000,     0.000,   1,1,0
   253,'1 ',1,   1,   9,     6.769,     0.780,     0.000,     0.000,     0.000,     0.000,   1,1,0
   253,'99',1,   1,   9,     6.169,    -4.074,     0.000,     0.000,     0.000,     0.000,   1,1,0
   254,'99',1,   1,   9,    54.806,    15.979,     0.000,     0.000,     0.000,     0.000,   1,1,0
   256,'1 ',1,   1,   9,     4.383,     0.936,     0.000,     0.000,     0.000,     0.000,   1,1,0
   257,'1 ',1,   1,   9,     4.383,     1.014,     0.000,     0.000,     0.000,     0.000,   1,1,0
   257,'99',1,   1,   9,    17.400,    11.142,     0.000,     0.000,     0.000,     0.000,   1,1,0
   258,'1 ',1,   1,   9,     2.769,     0.234,     0.000,     0.000,     0.000,     0.000,   1,1,0
   259,'1 ',1,   1,   9,     1.848,     0.468,     0.000,     0.000,     0.000,     0.000,   1,1,0
   260,'1 ',1,   1,   9,     2.769,     0.468,     0.000,     0.000,     0.000,     0.000,   1,1,0
   261,'1 ',1,   1,   9,     1.614,     0.312,     0.000,     0.000,     0.000,     0.000,   1,1,0
   262,'99',1,   1,   9,     2.000,    -6.618,     0.000,     0.000,     0.000,     0.000,   1,1,0
   263,'1 ',1,   1,   9,     0.920,     0.234,     0.000,     0.000,     0.000,     0.000,   1,1,0
   264,'1 ',1,   1,   9,     0.312,     0.078,     0.000,     0.000,     0.000,     0.000,   1,1,0
   266,'1 ',1,   1,   5,     2.316,     2.574,     0.000,     0.000,     0.000,     0.000,   1,1,0
   267,'1 ',1,   1,   5,    11.456,     5.451,     0.000,     0.000,     0.000,     0.000,   1,1,0
   269,'1 ',1,   1,   5,    -6.691,     1.185,     0.000,     0.000,     0.000,     0.000,   1,1,0
   270,'1 ',1,   1,   5,     4.983,     2.355,     0.000,     0.000,     0.000,     0.000,   1,1,0
   272,'1 ',1,   1,   5,    23.918,     4.531,     0.000,     0.000,     0.000,     0.000,   1,1,0
   273,'1 ',1,   1,   5,     2.932,     2.152,     0.000,     0.000,     0.000,     0.000,   1,1,0
   274,'1 ',1,   1,   5,    12.111,     3.252,     0.000,     0.000,     0.000,     0.000,   1,1,0
   277,'99',1,   1,   5,   125.910,    61.635,     0.000,     0.000,     0.000,     0.000,   1,1,0
   279,'1 ',1,   1,   5,     5.763,     2.402,     0.000,     0.000,     0.000,     0.000,   1,1,0
   281,'1 ',1,   1,   5,     1.591,     2.355,     0.000,     0.000,     0.000,     0.000,   1,1,0
   284,'1 ',1,   1,   5,     4.640,     1.505,     0.000,     0.000,     0.000,     0.000,   1,1,0
   284,'99',1,   1,   5,     5.178,     4.315,     0.000,     0.000,     0.000,     0.000,   1,1,0
   285,'1 ',1,   1,   5,     1.677,     1.552,     0.000,     0.000,     0.000,     0.000,   1,1,0
   286,'1 ',1,   1,   5,     1.107,     2.207,     0.000,     0.000,     0.000,     0.000,   1,1,0
   287,'1 ',1,   1,   5,     1.061,     2.067,     0.000,     0.000,     0.000,     0.000,   1,1,0
   289,'1 ',1,   1,   5,     4.695,     2.527,     0.000,     0.000,     0.000,     0.000,   1,1,0
   289,'99',1,   1,   5,     1.660,    -2.177,     0.000,     0.000,     0.000,     0.000,   1,1,0
...
0 / END OF LOAD DATA, BEGIN FIXED SHUNT DATA
     2,'1 ',1,     0.000,    15.498
    23,'1 ',1,     0.000,  -120.310
    36,'1 ',1,     0.000,    -4.438
    58,'1 ',1,     0.000,    10.592
    81,'1 ',1,     0.000,    21.502
    98,'1 ',1,     0.000,   -24.285
   100,'1 ',1,     0.000,     4.571
   102,'1 ',1,     0.000,   -43.607
   133,'1 ',1,     0.000,    -1.321
   137,'1 ',1,     0.000,   -13.204
   143,'1 ',1,     0.000,     1.197
   145,'1 ',1,     0.000,    16.360
   149,'1 ',1,     0.000,    -8.091
   156,'1 ',1,     0.000,    40.892
   195,'1 ',1,     0.000,     5.562
   220,'1 ',1,     0.000,    -1.094
   304,'1 ',1,     0.000,     2.218
   348,'1 ',1,     0.000,     5.534
   357,'1 ',1,     0.000,   -30.025
   363,'1 ',1,     0.000,    24.399
   364,'1 ',1,     0.000,   -71.188
   367,'1 ',1,     0.000,    60.608
   376,'1 ',1,     0.000,    -9.534
   380,'1 ',1,     0.000,    11.017
   386,'1 ',1,     0.000,    -5.842
   390,'1 ',1,     0.000,    12.518
   428,'1 ',1,     0.000,    -7.317
   442,'1 ',1,     0.000,    -7.663
   443,'1 ',1,     0.000,    12.284
   444,'1 ',1,     0.000,    19.281
   460,'1 ',1,     0.000,    32.216
   525,'1 ',1,     0.000,   100.748
   576,'1 ',1,     0.000,   -63.285
   591,'1 ',1,     0.000,    22.609
   595,'1 ',1,     0.000,     6.261
   623,'1 ',1,     0.000,    -2.498
   624,'1 ',1,     0.000,     6.887
   631,'1 ',1,     0.000,    30.406
   639,'1 ',1,     0.000,   -66.624
   640,'1 ',1,     0.000,   -75.050
   642,'1 ',1,     0.000,    88.396
   653,'1 ',1,     0.000,    26.664
   684,'1 ',1,     0.000,     0.059
   696,'1 ',1,     0.000,    -1.903
   697,'1 ',1,     0.000,   -37.362
   743,'1 ',1,     0.000,    -1.150
   748,'1 ',1,     0.000,   -19.101
   791,'1 ',1,     0.000,     0.336
   794,'1 ',1,     0.000,    -2.220
0 / END OF FIXED SHUNT DATA, BEGIN GENERATOR DATA
     6,'1 ',     0.000,     0.000,    33.333,   -33.333,0.95340,     0,   100.000, 0.00000E+0, 1.00000E+0, 0.00000E+0, 0.00000E+0,1.00000,0,  100.0,    63.000,    28.500,   1,1.0000,0,1,0,1,0,1,0,1
    23,'98',     5.515,   -62.890,   300.000,  -300.000,1.01000,     0,   100.000, 0.00000E+0, 1.00000E+0, 0.00000E+0, 0.00000E+0,1.00000,1,  100.0,    60.873,     0.000,   1,1.0000,0,1,0,1,0,1,0,1
    25,'1 ',     0.000,     0.000,    22.500,   -22.500,0.95340,     0,    67.500, 0.00000E+0, 1.65000E-1, 0.00000E+0, 0.00000E+0,1.00000,0,  100.0,   280.000,     0.000,   1,1.0000,0,1,0,1,0,1,0,1
    25,'2 ',     0.000,     0.000,    22.500,   -22.500,0.95340,     0,    67.500, 0.00000E+0, 1.65000E-1, 0.00000E+0, 0.00000E+0,1.00000,0,  100.0,    60.430,    14.250,   1,1.0000,0,1,0,1,0,1,0,1
    31,'99',    78.111,    12.312,   600.000,  -600.000,1.00990,     0,   100.000, 0.00000E+0, 1.00000E+0, 0.00000E+0, 0.00000E+0,1.00000,1,  100.0,   161.545,     0.000,   1,1.0000,0,1,0,1,0,1,0,1
    33,'1 ',     0.000,     0.000,    19.290,   -19.290,1.00870,    36,    57.870, 0.00000E+0, 1.48000E-1, 4.70000E-3, 9.39000E-2,1.00000,0,  100.0,    46.200,    11.400,   1,1.0000,0,1,0,1,0,1,0,1
    35,'1 ',     0.000,     0.000,    33.127,   -33.127,1.01010,     0,    99.380, 0.00000E+0, 1.78000E-1, 4.50000E-3, 9.28000E-2,1.00000,0,  100.0,   288.000,     0.000,   1,1.0000,0,1,0,1,0,1,0,1
    35,'2 ',     0.000,     0.000,    23.050,   -23.050,1.01010,     0,    69.150, 0.00000E+0, 1.35000E-1, 2.00000E-3, 5.85000E-2,1.00000,0,  100.0,   300.000,     0.000,   1,1.0000,0,1,0,1,0,1,0,1
    35,'3 ',     0.000,     0.000,    16.237,   -16.237,1.01010,     0,    48.710, 0.00000E+0, 1.93000E-1, 1.60000E-3, 5.41000E-2,1.00000,0,  100.0,    40.140,    25.140,   1,1.0000,0,1,0,1,0,1,0,1
    43,'99',     2.543,    -4.615,   600.000,  -600.000,1.01310,     0,   100.000, 0.00000E+0, 1.00000E+0, 0.00000E+0, 0.00000E+0,1.00000,1,  100.0,   357.500,     0.000,   1,1.0000,0,1,0,1,0,1,0,1
    45,'1 ',     0.000,     0.000,    67.750,   -67.750,1.00870,    36,   203.250, 0.00000E+0, 2.26000E-1, 9.40000E-3, 1.87600E-1,1.00000,0,  100.0,   173.250,    50.540,   1,1.0000,0,1,0,1,0,1,0,1
    46,'99',    25.935,    -9.904,   600.000,  -600.000,1.00480,     0,   100.000, 0.00000E+0, 1.00000E+0, 0.00000E+0, 0.00000E+0,1.00000,1,  100.0,    66.162,     0.000,   1,1.0000,0,1,0,1,0,1,0,1
    47,'99',    34.391,   -12.494,   600.000,  -600.000,1.01310,     0,   100.000, 0.00000E+0, 1.00000E+0, 0.00000E+0, 0.00000E+0,1.00000,1,  100.0,    81.621,     0.000,   1,1.0000,0,1,0,1,0,1,0,1
    52,'99',    62.312,   -47.692,   600.000,  -600.000,1.00510,     0,   100.000, 0.00000E+0, 1.00000E+0, 0.00000E+0, 0.00000E+0,1.00000,1,  100.0,   132.664,     0.000,   1,1.0000,0,1,0,1,0,1,0,1
    55,'99',    78.086,   -14.634,   600.000,  -600.000,1.01080,     0,   100.000, 0.00000E+0, 1.00000E+0, 0.00000E+0, 0.00000E+0,1.00000,1,  100.0,   161.500,     0.000,   1,1.0000,0,1,0,1,0,1,0,1
    59,'1 ',     3.833,   254.700,   254.700,  -254.700,1.04000,     0,   100.000, 0.00000E+0, 1.00000E+0, 0.00000E+0, 0.00000E+0,1.00000,1,  100.0,   353.750,     3.833,   1,1.0000,0,1,0,1,0,1,0,1
    65,'1 ',     7.393,     2.193,   226.800,  -226.800,1.01660,    16,    27.800, 0.00000E+0, 3.20000E-1, 0.00000E+0, 0.00000E+0,1.00000,1,  100.0,   315.000,     7.393,   1,1.0000,0,1,0,1,0,1,0,1
    65,'2 ',     0.000,     0.000,     9.267,    -9.267,1.01660,    16,    27.800, 0.00000E+0, 3.20000E-1, 0.00000E+0, 0.00000E+0,1.00000,0,  100.0,    25.200,     4.750,   1,1.0000,0,1,0,1,0,1,0,1
    71,'99',    33.853,   -11.439,   600.000,  -600.000,1.01590,     0,   100.000, 0.00000E+0, 1.00000E+0, 0.00000E+0, 0.00000E+0,1.00000,1,  100.0,    80.636,     0.000,   1,1.0000,0,1,0,1,0,1,0,1
    80,'1 ',     0.000,     0.000,     9.267,    -9.267,1.01660,    16,    27.800, 0.00000E+0, 3.20000E-1, 0.00000E+0, 0.00000E+0,1.00000,0,  100.0,    26.250,     4.750,   1,1.0000,0,1,0,1,0,1,0,1
    80,'2 ',     0.000,     0.000,     9.267,    -9.267,1.01660,    16,    27.800, 0.00000E+0, 3.20000E-1, 0.00000E+0, 0.00000E+0,1.00000,0,  100.0,    25.200,     1.900,   1,1.0000,0,1,0,1,0,1,0,1
    86,'99',    43.911,    -1.620,   600.000,  -600.000,1.01070,     0,   100.000, 0.00000E+0, 1.00000E+0, 0.00000E+0, 0.00000E+0,1.00000,1,  100.0,    99.024,     0.000,   1,1.0000,0,1,0,1,0,1,0,1
    87,'1 ',     0.000,     0.000,   234.900,  -234.900,1.00510,     0,   100.000, 0.00000E+0, 1.00000E+0, 0.00000E+0, 0.00000E+0,1.00000,0,  100.0,   326.250,     0.000,   1,1.0000,0,1,0,1,0,1,0,1
    90,'99',    28.458,    14.470,   600.000,  -600.000,1.00780,     0,   100.000, 0.00000E+0, 1.00000E+0, 0.00000E+0, 0.00000E+0,1.00000,1,  100.0,    70.774,     0.000,   1,1.0000,0,1,0,1,0,1,0,1
    93,'99',     6.677,   -63.149,   600.000,  -600.000,1.01610,     0,   100.000, 0.00000E+0, 1.00000E+0, 0.00000E+0, 0.00000E+0,1.00000,1,  100.0,   315.000,     0.000,   1,1.0000,0,1,0,1,0,1,0,1
    98,'99',    50.268,   -25.234,    33.333,   -33.333,1.01935,     0,   100.000, 0.00000E+0, 1.00000E+0, 0.00000E+0, 0.00000E+0,1.00000,0,  100.0,    65.268,    50.268,   1,1.0000,0,1,0,1,0,1,0,1
    99,'1 ',     0.000,     0.000,   129.375,  -129.375,1.02455,     0,   163.450, 0.00000E+0, 1.80000E-1, 0.00000E+0, 0.00000E+0,1.00000,0,  100.0,   179.688,    70.000,   1,1.0000,0,1,0,1,0,1,0,1
   100,'1 ',     0.000,     0.000,   129.375,  -129.375,1.02455,     0,   148.190, 0.00000E+0, 1.80000E-1, 0.00000E+0, 0.00000E+0,1.00000,0,  100.0,   179.688,    70.000,   1,1.0000,0,1,0,1,0,1,0,1
   100,'99',    13.104,     4.798,    33.333,   -33.333,1.02455,     0,   100.000, 0.00000E+0, 1.00000E+0, 0.00000E+0, 0.00000E+0,1.00000,0,  100.0,    28.104,    13.104,   1,1.0000,0,1,0,1,0,1,0,1
   116,'1 ',     0.000,     0.000,   123.750,  -123.750,1.02455,     0,   147.700, 0.00000E+0, 1.80000E-1, 0.00000E+0, 0.00000E+0,1.00000,0,  100.0,   171.875,    32.000,   1,1.0000,0,1,0,1,0,1,0,1
   117,'1 ',     0.000,     0.000,    37.667,   -37.667,1.02455,     0,   113.000, 0.00000E+0, 1.80000E-1, 0.00000E+0, 0.00000E+0,1.00000,0,  100.0,   113.000,    32.000,   1,1.0000,0,1,0,1,0,1,0,1
   121,'1 ',     0.000,     0.000,    45.000,   -45.000,1.02455,     0,   135.000, 0.00000E+0, 1.80000E-1, 0.00000E+0, 0.00000E+0,1.00000,0,  100.0,   135.000,    35.000,   1,1.0000,0,1,0,1,0,1,0,1
   131,'1 ',     0.000,     0.000,     8.333,    -8.333,1.02182,     0,    25.000, 0.00000E+0, 2.00000E-1, 0.00000E+0, 0.00000E+0,1.00000,0,  100.0,    25.000,    10.000,   1,1.0000,0,1,0,1,0,1,0,1
   131,'2 ',     0.000,     0.000,     8.333,    -8.333,1.02182,     0,    25.000, 0.00000E+0, 2.00000E-1, 0.00000E+0, 0.00000E+0,1.00000,0,  100.0,    25.000,    10.000,   1,1.0000,0,1,0,1,0,1,0,1
   131,'3 ',     0.000,     0.000,   195.000,  -172.000,1.02182,     0,    30.000, 0.00000E+0, 2.00000E-1, 0.00000E+0, 0.00000E+0,1.00000,0,  100.0,    39.062,    10.000,   1,1.0000,0,1,0,1,0,1,0,1
   131,'4 ',     0.000,     0.000,   177.000,  -168.000,1.02182,     0,    25.000, 0.00000E+0, 2.00000E-1, 0.00000E+0, 0.00000E+0,1.00000,0,  100.0,    31.250,    10.000,   1,1.0000,0,1,0,1,0,1,0,1
   133,'99',     2.396,    -1.381,    33.333,   -33.333,1.02260,     0,   100.000, 0.00000E+0, 1.00000E+0, 0.00000E+0, 0.00000E+0,1.00000,0,  100.0,   295.000,     2.396,   1,1.0000,0,1,0,1,0,1,0,1
   134,'1 ',     0.000,     0.000,    16.667,   -16.667,1.02455,     0,    50.000, 0.00000E+0, 2.00000E-1, 0.00000E+0, 0.00000E+0,1.00000,0,  100.0,    50.000,    10.000,   1,1.0000,0,1,0,1,0,1,0,1
   151,'1 ',     0.000,     0.000,   108.000,  -108.000,1.02455,     0,   120.000, 0.00000E+0, 1.80000E-1, 0.00000E+0, 0.00000E+0,1.00000,0,  100.0,   150.000,    70.000,   1,1.0000,0,1,0,1,0,1,0,1
   151,'2 ',   120.000,   108.000,   108.000,  -108.000,1.02455,     0,   120.000, 0.00000E+0, 1.80000E-1, 0.00000E+0, 0.00000E+0,1.00000,1,  100.0,   150.000,    58.333,   1,1.0000,0,1,0,1,0,1,0,1
   152,'1 ',   149.993,    94.371,   134.994,  -134.994,1.02455,     0,   144.000, 0.00000E+0, 1.80000E-1, 0.00000E+0, 0.00000E+0,1.00000,1,  100.0,   187.491,    79.000,   1,1.0000,0,1,0,1,0,1,0,1
   152,'2 ',     0.000,     0.000,    36.667,   -36.667,1.02455,     0,   110.000, 0.00000E+0, 1.80000E-1, 0.00000E+0, 0.00000E+0,1.00000,0,  100.0,   110.000,    79.000,   1,1.0000,0,1,0,1,0,1,0,1
   156,'99',    47.466,    43.051,    33.333,   -33.333,1.02608,     0,   100.000, 0.00000E+0, 1.00000E+0, 0.00000E+0, 0.00000E+0,1.00000,0,  100.0,    62.466,    47.466,   1,1.0000,0,1,0,1,0,1,0,1
   159,'99',     0.084,    70.826,   600.000,  -600.000,1.01930,     0,   100.000, 0.00000E+0, 1.00000E+0, 0.00000E+0, 0.00000E+0,1.00000,1,  100.0,   366.250,     0.000,   1,1.0000,0,1,0,1,0,1,0,1
   190,'99',    40.836,    93.459,   600.000,  -600.000,1.03300,     0,   100.000, 0.00000E+0, 1.00000E+0, 0.00000E+0, 0.00000E+0,1.00000,1,  100.0,    99.579,     0.000,   1,1.0000,0,1,0,1,0,1,0,1
   221,'1 ',     0.000,     0.000,   123.333,  -123.333,1.02864,     0,   370.000, 0.00000E+0, 2.10000E-1, 0.00000E+0, 0.00000E+0,1.00000,0,  100.0,   370.000,   240.000,   1,1.0000,0,1,0,1,0,1,0,1
   221,'2 ',     0.000,     0.000,   123.333,  -123.333,1.02864,     0,   370.000, 0.00000E+0, 2.10000E-1, 0.00000E+0, 0.00000E+0,1.00000,0,  100.0,   370.000,   240.000,   1,1.0000,0,1,0,1,0,1,0,1
   221,'3 ',     0.000,     0.000,   388.125,  -388.125,1.02864,     0,   449.450, 0.00000E+0, 2.10000E-1, 0.00000E+0, 0.00000E+0,1.00000,0,  100.0,   539.062,   240.000,   1,1.0000,0,1,0,1,0,1,0,1
   222,'1 ',   462.500,   178.341,   416.250,  -416.250,1.02864,     0,   455.560, 0.00000E+0, 2.10000E-1, 0.00000E+0, 0.00000E+0,1.00000,1,  100.0,   578.125,   240.000,   1,1.0000,0,1,0,1,0,1,0,1
   222,'2 ',     0.000,     0.000,   333.000,  -333.000,1.02864,     0,   397.310, 0.00000E+0, 2.10000E-1, 0.00000E+0, 0.00000E+0,1.00000,0,  100.0,   462.500,   240.000,   1,1.0000,0,1,0,1,0,1,0,1
   223,'1 ',   421.879,   -17.100,   981.927,  -981.927,1.01200,     0,   616.840, 0.00000E+0, 2.35000E-1, 0.00000E+0, 0.00000E+0,1.00000,1,  100.0,  1363.788,   350.876,   1,1.0000,0,1,0,1,0,1,0,1
   223,'2 ',   421.879,   -17.100,   981.927,  -981.927,1.01200,     0,   616.840, 0.00000E+0, 2.35000E-1, 0.00000E+0, 0.00000E+0,1.00000,1,  100.0,  1363.788,   350.876,   1,1.0000,0,1,0,1,0,1,0,1
   223,'3 ',   421.879,   -17.100,   981.927,  -981.927,1.01200,     0,   616.840, 0.00000E+0, 2.35000E-1, 0.00000E+0, 0.00000E+0,1.00000,1,  100.0,  1363.788,   350.876,   1,1.0000,0,1,0,1,0,1,0,1
   224,'1 ',     0.000,     0.000,   416.250,  -416.250,1.01200,     0,   451.840, 0.00000E+0, 2.10000E-1, 0.00000E+0, 0.00000E+0,1.00000,0,  100.0,   578.125,   240.000,   1,1.0000,0,1,0,1,0,1,0,1
   224,'2 ',   425.000,   123.911,   382.500,  -382.500,1.01200,     0,   416.510, 0.00000E+0, 2.10000E-1, 0.00000E+0, 0.00000E+0,1.00000,1,  100.0,   531.250,   240.000,   1,1.0000,0,1,0,1,0,1,0,1
   224,'3 ',   425.000,   123.911,   382.500,  -382.500,1.01200,     0,   416.510, 0.00000E+0, 2.10000E-1, 0.00000E+0, 0.00000E+0,1.00000,1,  100.0,   531.250,   240.000,   1,1.0000,0,1,0,1,0,1,0,1
   233,'99',    97.062,    -9.508,   600.000,  -600.000,1.00410,     0,   100.000, 0.00000E+0, 1.00000E+0, 0.00000E+0, 0.00000E+0,1.00000,1,  100.0,   221.800,     0.000,   1,1.0000,0,1,0,1,0,1,0,1
   236,'1 ',     0.000,     0.000,   123.750,  -123.750,1.02045,     0,   166.810, 0.00000E+0, 1.80000E-1, 0.00000E+0, 0.00000E+0,1.00000,0,  100.0,   171.875,    91.667,   1,1.0000,0,1,0,1,0,1,0,1
   236,'98',     0.000,   103.823,   371.000,  -371.000,1.02045,     0,   120.000, 0.00000E+0, 1.80000E-1, 0.00000E+0, 0.00000E+0,1.00000,1,  100.0,   150.000,     0.000,   1,1.0000,0,1,0,1,0,1,0,1
   246,'1 ',   437.500,    79.057,   393.750,  -393.750,1.01364,     0,   477.900, 0.00000E+0, 2.10000E-1, 0.00000E+0, 0.00000E+0,1.00000,1,  100.0,   546.875,   240.000,   1,1.0000,0,1,0,1,0,1,0,1
   250,'1 ',     0.000,     0.000,   190.000,  -179.000,1.02182,     0,    30.000, 0.00000E+0, 2.00000E-1, 0.00000E+0, 0.00000E+0,1.00000,0,  100.0,    37.500,     0.000,   1,1.0000,0,1,0,1,0,1,0,1
   256,'1 ',   119.701,     5.760,   228.600,  -228.600,1.02455,     0,     0.430, 0.00000E+0, 2.00000E-1, 0.00000E+0, 0.00000E+0,1.00000,1,  100.0,   317.500,     0.000,   1,1.0000,0,1,0,1,0,1,0,1
   267,'99',     5.913,    11.057,   600.000,  -600.000,1.01000,     0,   100.000, 0.00000E+0, 1.00000E+0, 0.00000E+0, 0.00000E+0,1.00000,1,  100.0,   367.500,     0.000,   1,1.0000,0,1,0,1,0,1,0,1
   268,'99',   219.461,   165.459,   600.000,  -600.000,1.01800,     0,   100.000, 0.00000E+0, 1.00000E+0, 0.00000E+0, 0.00000E+0,1.00000,1,  100.0,   501.500,     0.000,   1,1.0000,0,1,0,1,0,1,0,1
   272,'99',    34.358,    37.027,   600.000,  -600.000,1.01940,     0,   100.000, 0.00000E+0, 1.00000E+0, 0.00000E+0, 0.00000E+0,1.00000,1,  100.0,    93.094,     0.000,   1,1.0000,0,1,0,1,0,1,0,1
   275,'99',     3.291,   -50.417,   600.000,  -600.000,1.01850,     0,   100.000, 0.00000E+0, 1.00000E+0, 0.00000E+0, 0.00000E+0,1.00000,1,  100.0,    91.321,     0.000,   1,1.0000,0,1,0,1,0,1,0,1
   281,'99',     4.012,     1.743,   600.000,  -600.000,1.01020,     0,   100.000, 0.00000E+0, 1.00000E+0, 0.00000E+0, 0.00000E+0,1.00000,1,  100.0,   340.000,     0.000,   1,1.0000,0,1,0,1,0,1,0,1
   293,'1 ',     0.000,     0.000,    76.667,   -76.667,1.02590,   322,   230.000, 2.30000E-3, 1.68000E-1, 0.00000E+0, 0.00000E+0,1.02500,0,  100.0,   173.250,   117.800,   1,1.0000,0,1,0,1,0,1,0,1
   296,'1 ',     0.000,     0.000,    76.667,   -76.667,1.02590,   322,   230.000, 2.30000E-3, 1.68000E-1, 0.00000E+0, 0.00000E+0,1.02500,0,  100.0,   173.250,   117.800,   1,1.0000,0,1,0,1,0,1,0,1
   298,'99',     8.966,     7.830,   600.000,  -600.000,1.02780,     0,   100.000, 0.00000E+0, 1.00000E+0, 0.00000E+0, 0.00000E+0,1.00000,1,  100.0,    35.141,     0.000,   1,1.0000,0,1,0,1,0,1,0,1
   304,'99',    29.434,     2.277,    33.333,   -33.333,1.01312,     0,   100.000, 0.00000E+0, 1.00000E+0, 0.00000E+0, 0.00000E+0,1.00000,0,  100.0,    44.434,    29.434,   1,1.0000,0,1,0,1,0,1,0,1
   305,'1 ',     0.000,     0.000,    76.667,   -76.667,1.02590,   265,   230.000, 2.20000E-3, 1.72800E-1, 0.00000E+0, 0.00000E+0,1.02500,0,  100.0,   173.250,   117.800,   1,1.0000,0,1,0,1,0,1,0,1
   307,'99',    14.962,     4.164,   600.000,  -600.000,1.00640,     0,   100.000, 0.00000E+0, 1.00000E+0, 0.00000E+0, 0.00000E+0,1.00000,1,  100.0,    46.103,     0.000,   1,1.0000,0,1,0,1,0,1,0,1
   309,'1 ',     0.000,     0.000,   444.271,  -444.271,1.01000,   308,   300.000, 0.00000E+0, 2.07000E-1, 0.00000E+0, 0.00000E+0,1.00000,0,  100.0,   617.042,   198.808,   1,1.0000,0,1,0,1,0,1,0,1
   326,'1 ',     0.000,     0.000,    76.667,   -76.667,1.02590,   265,   230.000, 2.20000E-3, 1.72800E-1, 0.00000E+0, 0.00000E+0,1.02500,0,  100.0,   173.250,   117.800,   1,1.0000,0,1,0,1,0,1,0,1
   335,'1 ',     0.000,     0.000,    76.667,   -76.667,1.02590,   265,   230.000, 2.20000E-3, 1.72800E-1, 0.00000E+0, 0.00000E+0,1.02500,0,  100.0,   173.250,   117.800,   1,1.0000,0,1,0,1,0,1,0,1
   337,'99',     4.295,     4.081,   600.000,  -600.000,1.01000,     0,   100.000, 0.00000E+0, 1.00000E+0, 0.00000E+0, 0.00000E+0,1.00000,1,  100.0,   323.750,     0.000,   1,1.0000,0,1,0,1,0,1,0,1
   342,'1 ',     0.000,     0.000,   245.700,  -245.700,1.03000,     0,   100.000, 0.00000E+0, 1.00000E+0, 0.00000E+0, 0.00000E+0,1.00000,0,  100.0,   341.250,     0.000,   1,1.0000,0,1,0,1,0,1,0,1
   345,'99',     8.397,     6.585,   600.000,  -600.000,1.02780,     0,   100.000, 0.00000E+0, 1.00000E+0, 0.00000E+0, 0.00000E+0,1.00000,1,  100.0,    34.101,     0.000,   1,1.0000,0,1,0,1,0,1,0,1
   350,'99',    76.888,    -8.358,   600.000,  -600.000,1.00180,     0,   100.000, 0.00000E+0, 1.00000E+0, 0.00000E+0, 0.00000E+0,1.00000,1,  100.0,   159.310,     0.000,   1,1.0000,0,1,0,1,0,1,0,1
   352,'1 ',     0.000,     0.000,   302.333,  -302.333,1.02590,   277,   907.000, 3.80000E-3, 2.20000E-1, 0.00000E+0, 0.00000E+0,1.00000,0,  100.0,   254.000,     0.000,   1,1.0000,0,1,0,1,0,1,0,1
   353,'99',    57.520,  -127.956,   600.000,  -600.000,1.00630,     0,   100.000, 0.00000E+0, 1.00000E+0, 0.00000E+0, 0.00000E+0,1.00000,1,  100.0,   147.834,     0.000,   1,1.0000,0,1,0,1,0,1,0,1
   357,'99',   122.965,   -29.975,    33.333,   -33.333,1.01000,     0,   100.000, 0.00000E+0, 1.00000E+0, 0.00000E+0, 0.00000E+0,1.00000,0,  100.0,   137.965,   122.965,   1,1.0000,0,1,0,1,0,1,0,1
   361,'99',   290.588,  -146.778,   600.000,  -600.000,1.01000,     0,   100.000, 0.00000E+0, 1.00000E+0, 0.00000E+0, 0.00000E+0,1.00000,1,  100.0,   625.135,     0.000,   1,1.0000,0,1,0,1,0,1,0,1
   364,'99',    27.029,   -71.598,    33.333,   -33.333,1.00286,     0,   100.000, 0.00000E+0, 1.00000E+0, 0.00000E+0, 0.00000E+0,1.00000,0,  100.0,    42.029,    27.029,   1,1.0000,0,1,0,1,0,1,0,1
   370,'1 ',     0.000,     0.000,   228.552,  -228.552,1.01125,     0,   216.550, 0.00000E+0, 1.80000E-1, 0.00000E+0, 0.00000E+0,1.00000,0,  100.0,   317.434,    99.538,   1,1.0000,0,1,0,1,0,1,0,1
   370,'2 ',     0.000,     0.000,   228.552,  -228.552,1.01125,     0,   179.000, 0.00000E+0, 1.80000E-1, 0.00000E+0, 0.00000E+0,1.00000,0,  100.0,   317.434,    99.538,   1,1.0000,0,1,0,1,0,1,0,1
   370,'3 ',     0.000,     0.000,   228.552,  -228.552,1.01125,     0,   179.000, 0.00000E+0, 1.80000E-1, 0.00000E+0, 0.00000E+0,1.00000,0,  100.0,   317.434,    99.538,   1,1.0000,0,1,0,1,0,1,0,1
   371,'1 ',     0.000,     0.000,   161.100,  -161.100,1.01125,     0,   179.000, 0.00000E+0, 1.80000E-1, 0.00000E+0, 0.00000E+0,1.00000,0,  100.0,   223.750,  -200.000,   1,1.0000,0,1,0,1,0,1,0,1
   373,'1 ',     0.000,     0.000,    49.500,  -185.000,1.01909,     0,    58.990, 0.00000E+0, 2.00000E-1, 0.00000E+0, 0.00000E+0,1.00000,0,  100.0,    68.750,    26.000,   1,1.0000,0,1,0,1,0,1,0,1
   374,'1 ',     0.000,     0.000,    18.333,   -18.333,1.01909,     0,    55.000, 0.00000E+0, 2.00000E-1, 0.00000E+0, 0.00000E+0,1.00000,0,  100.0,    55.000,    26.000,   1,1.0000,0,1,0,1,0,1,0,1
   375,'1 ',     0.000,     0.000,   264.600,  -264.600,1.02182,     0,     0.360, 0.00000E+0, 2.00000E-1, 0.00000E+0, 0.00000E+0,1.00000,0,  100.0,   367.500,     0.000,   1,1.0000,0,1,0,1,0,1,0,1
   376,'1 ',     0.000,     0.000,   193.000,  -169.000,1.02727,     0,    26.000, 0.00000E+0, 2.00000E-1, 0.00000E+0, 0.00000E+0,1.00000,0,  100.0,    32.500,     0.000,   1,1.0000,0,1,0,1,0,1,0,1
...